*WARNING DETAIL FILE

******************************************************************************
*DSSAT Cropping System Model Ver. 4.6.1.000 -release      NOV 06, 2015; 16:45:32

*RUN   0


 CSM     YEAR DOY =    0   0
 Batch file not found.  Please check file name or create file.                 
 File: /Users/bocinsky/Desktop/MAÍS/                                          
    Line:     0                                                                
    Error key: CSM                                                             
 Simulations terminated.                                                       
